[TITLE]


[PATTERNS]
;ID                             	Multipliers
;ID              	Multipliers
1                              	0.6       	0.64      	0.71      	0.77      	0.84      	1.01      
1                              	1.08      	1.11      	1.13      	1.15      	1.15      	1.11      
1                              	1.08      	1.0       	1.18      	1.15      	1.13      	1.13      
1                              	1.1       	1.1       	1.08      	0.94      	0.86      	0.79      
[CURVES]
;ID                            X-Value   Y-Value   
;PUMP:PUMP
1                              	200       	4         
;PUMP:PUMP
2                              	100       	4         
;PUMP:PUMP
3                              	200       	5         
;PUMP:PUMP
4                              	200       	50        
;PUMP:PUMP
5                              	100       	50        
;PUMP:PUMP
6                              	0         	45        
6                              	100       	40        
6                              	200       	15        
6                              	300       	0         
;PUMP:PUMP
7                              	0         	45        
7                              	50        	40        
7                              	100       	25        
[JUNCTIONS]
;ID                            	Elev 	Demand    	Pattern                        
1                              	15.997	0         	1                              ;
10                             	19   	0         	1                              ;
11                             	11   	0         	                               ;
13                             	17.349	0         	1                              ;
14                             	17.349	0         	1                              ;
15                             	17.349	0         	1                              ;
16                             	19.863	0         	1                              ;
2                              	15.977	0         	1                              ;
20                             	19.863	0         	1                              ;
21                             	18.188	0         	1                              ;
22                             	17.309	0         	1                              ;
24                             	17.309	0         	1                              ;
26                             	22.107	0         	1                              ;
27                             	21.69	0         	1                              ;
28                             	28   	0         	1                              ;
29                             	20.558	0.626     	1                              ;
3                              	15.977	0         	1                              ;
32                             	7.7  	0         	1                              ;
4                              	15.977	0         	1                              ;
5                              	15.997	0         	1                              ;
6                              	7.57 	0         	                               ;
7                              	19   	0         	1                              ;
8                              	19   	0         	1                              ;
9                              	17.349	0         	1                              ;
Advance_Smelting_Technology    	18.466	0.91      	1                              ;P-402018
Alam_Cipta_Lestari             	7.343	0.08      	1                              ;P-302055
Alu_Prima_Pacific_Industries   	20.953	0.9       	1                              ;P-402010
Alu_Prima_Pacific_Industries_II	25.575	0.86      	1                              ;P-402014
Aneka_Kabel_Elektrik           	18.089	0.2       	1                              ;
Anugrah_Mesindo_Abadi          	20   	0.1       	1                              ;
Asa_Bintang_Pratama            	18.947	0.44      	1                              ;P-301061
Asmaul_Barokah_Mandiri         	15.802	0.09      	1                              ;P-400004
Astrindo_Lestari_K             	17.934	0.07      	1                              ;P-301012
Avia_Avian                     	16.369	1.48      	1                              ;P-402007
Bahari_Makmur_Sejati           	12.244	4         	1                              ;
Bahari_Makmur_Sejati_II        	13.234	2.45      	1                              ;P-302029
Bahtera_Indo_Amplas_Gemilang   	26.954	0.13      	1                              ;
Baja_Perkasa_Sentosa           	15.331	5.79      	1                              ;P-300027
Balmer_Lawrie_Ind              	17.086	0.07      	1                              ;P-301005
Batavia_Indo_Global            	10.347	0.69      	1                              ;P-302052
Berkah_Manis_Makmur            	17.12	22        	1                              ;P-400007
Berkat_Subuh_Transpor          	26   	0.04      	1                              ;
Berrivale_Industri             	17.055	0.34      	1                              ;P-301036
Biotis_Agrindo                 	9.525	0.23      	1                              ;P-302011
Boo_Young_Indonesia            	14.578	1.59      	1                              ;P-301083
Borindo_Mitra_Jaya             	14.231	0.53      	1                              ;P-301028
Broco_Aerated_Concrete_Industry	27   	0.45      	1                              ;
Budi_Texindo_Prakasa           	26.62	1.03      	1                              ;
Bumi_Indah_Global              	20   	0.13      	1                              ;
Bumi_Tangerang_Gas_Industry    	18.017	0.21      	1                              ;P-301096
Cahaya_Indo_Abadi              	6.954	0.13      	1                              ;
Cargill_Indonesia              	15.59	1.71      	1                              ;P-301021
Century_Metalindo              	10.202	1.33      	1                              ;P-302009
Charoen_Pokphand               	16.12	18        	1                              ;P-301023
Charoen_Pokphand_Ind_II        	16.211	2.84      	1                              ;P-301080
Charoen_Pokphand_Ind_IV        	17.092	0.95      	1                              ;P-301087
Charoen_Pokphand_Ind-Dv_Bebek  	15.12	6.15      	1                              ;P-301094
Charoen_Pokphand-Ex_Hereau     	16.822	0.36      	1                              ;P-301004
Chempro_Indonesia              	17.665	0.06      	1                              ;P-301029
Chien_Fu_UP                    	15.908	0.32      	1                              ;P-301010
Chih_Horng                     	16.84	0.03      	1                              ;P-301011
Christy_Sejahtera              	24.884	0.04      	1                              ;
Cibadak_Indah_Sari_Farm        	24.541	0.58      	1                              ;
Cikande_Hervest_International  	12.632	0.06      	1                              ;P-301078
Cipta_Niaga_Gas                	14.997	0         	1                              ;
Cipta_Sukses_Bersama           	20   	0.1       	1                              ;
Citra_Baru_Steel               	9.69 	3.05      	1                              ;P-302007
Citra_Baru_Steel_II            	10.532	2.93      	1                              ;P-302047
Citra_Buana_Pasta              	21.273	0.71      	1                              ;P-402009
Citra_Buana_Unggul             	13.762	0.08      	1                              ;P-300002
Citra_Rasins_Industries        	17.034	0.25      	1                              ;P-301079
Crown_Steel                    	7.7  	0.56      	1                              ;P-302003
CV_Jaya_Putra_Pratama          	26   	0.58      	1                              ;
Datong_Lightway_International  	27.885	0.13      	1                              ;
Delco_Prima_Steel_Mills        	18.081	0.26      	1                              ;TP-402026
Dien_Indonesia                 	10.746	0.15      	1                              ;P-302004
Dinas_Perhubungan-BPTD_Banten  	27   	0.04      	1                              ;P-400009
Dolphin_Putra_Sejati           	22.745	0.19      	1                              ;
Dongsuh_Indonesia              	14.84	0.4       	1                              ;P-302028
DOS_Internasional              	14.203	0.04      	1                              ;P-300023
Ducon_Tetrablok                	12.428	1.88      	1                              ;P-302026
DyStar_Colours_Indonesia       	20   	2.7       	1                              ;
Eaaagle_Nice                   	10.636	5.66      	1                              ;300021
Ecofilm_Indonesia              	26.329	0.1       	1                              ;
Ediral_Tri_Tunggal_Perkasa     	14.943	0.04      	1                              ;P-301091
Ediral_Tritunggal_P            	16.944	0.05      	1                              ;P-301044
Eka_Paper_Tube_Asri            	25.016	0.2       	1                              ;TP-402028
Enest                          	28   	0.1       	1                              ;
Era_Mas_Indoalumina            	19.994	0.15      	1                              ;P-301082
Fajarpurnama_Pratama_Inti      	16.586	0.07      	1                              ;P-301045
Farika_Beton                   	26   	0.91      	1                              ;P-400003
Federal_International_Finance  	18.619	0.04      	1                              ;
FKK                            	26.719	0.1       	1                              ;
Fonusa_Agung_Mulya             	20.291	2.71      	1                              ;P-402008
Gama_Graha_Sarana              	10.928	0.12      	1                              ;P-302002
Garda_Kusuma_Wisnujaya         	19.233	0.03      	1                              ;P-301088
Garda_Mas_Tunggal_Prima        	16.794	0.01      	1                              ;P-300009
Geasindo_Teknik_Prima          	27   	0.04      	1                              ;
Gizindo_Sejahtera_Jaya         	22   	5.18      	1                              ;P-500001
Global_Line_Industry           	20   	0.1       	1                              ;
Golden_Coral_Corporindo        	18.703	0.01      	1                              ;P-402024
Golden_Harvest_Cocoa_Indonesia 	16.925	4         	1                              ;
Gorda_Prima_PLN                	16.145	0.08      	1                              ;
Grand_Pintalan                 	10.624	0.03      	1                              ;P-300004
Grasindo_Primasukses           	17.197	0.01      	1                              ;
Griya_Mandiri_Perkasa          	10.747	0.1       	1                              ;
Hanjin_Indonesia_Jaya          	16.964	0.04      	1                              ;P-301049
Hi-Cook_Indonesia              	10.225	0.03      	1                              ;P-302051
Himalaya_Nabeya                	18.973	0.05      	1                              ;P-301035
Honoris_Industri               	19.632	0.5       	1                              ;P-301020
HSIN_Mei_Kuang_Indonesia       	16.876	0.12      	1                              ;P-301085
Hwa_Hok_Steel                  	7.133	3.22      	1                              ;P-302010
Hwa_Hok_Steel_II               	8.599	0.05      	1                              ;P-302059
Hwan_Indonesia                 	8.55 	0.1       	1                              ;P-302013
IMCP_Jawilan                   	25.426	0.39      	1                              ;
Indo_Chemical                  	13.704	0.31      	1                              ;P-301013
Indo_Metal_Perkasa             	10.99	0.33      	1                              ;P-400013
Indo_Pangan_Nusantara          	26.816	0.24      	1                              ;P-402027
Indo_Prima_Perkasa             	17.231	0.683     	1                              ;P-402013
Indo_Prima_Perkasa_II/Sinar_A_M	29   	0.08      	1                              ;TP-402029
Indo_Prima_PerkasaII           	21.6 	0.03      	1                              ;TP-402005
Indo_Sinar_Rejeki              	20   	0.1       	1                              ;
Indoblock_Mitra_Lestari_Industr	24.281	0.1       	1                              ;
Indonesia_Nippon_Seiki         	13.042	0.29      	1                              ;P-302001
Industri_Pundi_Uniwood         	27.091	1.03      	1                              ;
Infiltraco_Murni               	17.4 	0.08      	1                              ;P-301050
Inti_Global_Industries         	15.14	1.51      	1                              ;P-400012
J.2297                         	15.977	7         	1                              ;J2227
J001                           	7.754	0         	1                              ;
J002                           	7.725	0         	1                              ;
J003                           	7.69 	0         	1                              ;
J006                           	7.57 	0         	1                              ;
J007                           	7.04 	0         	1                              ;
J008                           	7.645	0         	1                              ;
J009                           	14.563	0         	1                              ;
J010                           	14.563	0         	1                              ;
J011                           	5.562	0         	1                              ;
J012                           	9.903	0         	1                              ;
J013                           	9.879	0         	1                              ;
J014                           	9.481	0         	1                              ;
J015                           	7.274	0         	1                              ;
J016                           	10.255	0         	1                              ;
J1014                          	5.289	0         	1                              ;
J1017                          	7.855	0         	1                              ;
J1019                          	7.725	0         	1                              ;
J1020                          	7.627	0         	1                              ;
J1023                          	6.065	0         	1                              ;
J1024                          	6.064	0         	1                              ;
J1027                          	3.75 	0         	1                              ;
J1028                          	10.309	0         	1                              ;
J1030                          	9.878	0         	1                              ;
J1031                          	7.434	0         	1                              ;
J1033                          	16.448	0         	1                              ;
J1034                          	16.273	0         	1                              ;
J1035                          	16.273	0         	1                              ;
J1045                          	20   	0         	1                              ;
J1049                          	13.25	0         	1                              ;
J1050                          	13.25	0         	1                              ;
J1051                          	15.969	0         	1                              ;
J1053                          	14.99	0         	1                              ;
J1055                          	19.949	0         	1                              ;
J1058                          	15.824	0         	1                              ;
J1059                          	13.877	0         	1                              ;
J1060                          	13.835	0         	1                              ;
J1065                          	6.321	0         	1                              ;
J1066                          	8.452	0         	1                              ;
J1067                          	8.452	0         	1                              ;
J1072                          	27   	0         	1                              ;
J1077                          	20.111	0         	1                              ;
J1081                          	15.45	0         	1                              ;
J1082                          	16.187	0         	1                              ;
J1083                          	15.373	0         	1                              ;
J1085                          	16.098	0         	1                              ;
J1086                          	16.098	0         	1                              ;
J1087                          	18.856	0         	1                              ;
J1089                          	18.506	0         	1                              ;
J1091                          	17.432	0         	1                              ;
J1093                          	17.28	0         	1                              ;
J1096                          	13.499	0         	1                              ;
J1097                          	16.181	0         	1                              ;
J1098                          	16.436	0         	1                              ;
J1099                          	16.181	0         	1                              ;
J1100                          	16.99	0         	1                              ;
J1102                          	17.821	0         	1                              ;
J1104                          	18.753	0         	1                              ;
J1105                          	17.732	0         	1                              ;
J1108                          	11.586	0         	1                              ;
J1109                          	14.526	0         	1                              ;
J1111                          	17.008	0         	1                              ;
J1112                          	17.008	0         	1                              ;
J1113                          	19.877	0         	1                              ;
J1114                          	18.175	0         	1                              ;
J1115                          	18.045	0         	1                              ;
J1116                          	17.73	0         	1                              ;
J1117                          	16.12	0         	1                              ;
J1118                          	16.12	0         	1                              ;
J1120                          	16.151	0         	1                              ;
J1121                          	16.12	0         	1                              ;
J1122                          	16.12	0         	1                              ;
J1123                          	19.813	0         	1                              ;
J1124                          	13.566	0         	1                              ;
J1125                          	13.551	0         	1                              ;
J1126                          	13.551	0         	1                              ;
J1128                          	17.056	0         	1                              ;
J1130                          	17.056	0         	1                              ;
J1131                          	18.737	0         	1                              ;
J1133                          	18.88	0         	1                              ;
J1134                          	18.217	0         	1                              ;
J1135                          	18.549	0         	1                              ;
J1137                          	16.948	0         	1                              ;
J1138                          	16.636	0         	1                              ;
J1139                          	13.566	0         	1                              ;
J1140                          	16.026	0         	1                              ;
J1142                          	16.054	0         	1                              ;
J1145                          	11.794	0         	1                              ;
J1146                          	11.794	0         	1                              ;
J1149                          	12.909	0         	1                              ;
J1150                          	12.909	0         	1                              ;
J1151                          	13.707	0         	1                              ;
J1152                          	13.707	0         	1                              ;
J1153                          	15.743	0         	1                              ;
J1156                          	9.942	0         	1                              ;
J1158                          	12.104	0         	1                              ;
J1159                          	12.104	0         	1                              ;
J1162                          	7.564	0         	1                              ;
J1163                          	10.457	0         	1                              ;
J1164                          	10.547	0         	1                              ;
J1166                          	8.846	0         	1                              ;
J1167                          	12.099	0         	1                              ;
J1168                          	12.241	0         	1                              ;
J1170                          	12.597	0         	1                              ;
J1172                          	12.872	0         	1                              ;
J1174                          	13.575	0         	1                              ;
J1175                          	13.93	0         	1                              ;
J1176                          	13.575	0         	1                              ;
J1178                          	14.108	0         	1                              ;
J1180                          	14.692	0         	1                              ;
J1181                          	15.89	0         	1                              ;
J1183                          	15.987	0         	1                              ;
J1187                          	16.493	0         	1                              ;
J1188                          	16.586	0         	1                              ;
J1190                          	15.908	0         	1                              ;
J1192                          	17.341	0         	1                              ;
J1194                          	15.971	0         	1                              ;
J1195                          	15.637	0         	1                              ;
J1197                          	14.26	0         	1                              ;
J1198                          	16.273	0         	1                              ;
J1199                          	16.273	0         	1                              ;
J120                           	10.579	0         	1                              ;
J1200                          	18.245	0         	1                              ;
J1203                          	19.707	0         	1                              ;
J1205                          	19.68	0         	1                              ;
J1206                          	17.317	0         	1                              ;
J1222                          	15.27	0         	1                              ;
J1223                          	13.807	0         	1                              ;
J1224                          	8.096	0         	1                              ;
J1226                          	15.469	0         	1                              ;
J1227                          	14.67	0         	1                              ;
J1230                          	14.881	0         	1                              ;
J1231                          	14.36	0         	1                              ;
J1232                          	14.797	0         	1                              ;
J1233                          	15.617	0         	1                              ;
J1237                          	17.249	0         	1                              ;
J1239                          	28   	0         	1                              ;
J1242                          	10.854	0         	1                              ;
J1243                          	11.314	0         	1                              ;
J1244                          	9.378	0         	1                              ;
J1246                          	11.446	0         	1                              ;
J1247                          	9.693	0         	1                              ;
J1248                          	8.55 	0         	1                              ;
J1249                          	8.55 	0         	1                              ;
J1251                          	9.281	0         	1                              ;
J1252                          	9.978	0         	1                              ;
J1254                          	10.152	0         	1                              ;
J1255                          	11.158	0         	1                              ;
J1256                          	11.158	0         	1                              ;
J1258                          	12.003	0         	1                              ;
J1260                          	11.538	0         	1                              ;
J1262                          	11.538	0         	1                              ;
J1264                          	8.039	0         	1                              ;
J1265                          	8.649	0         	1                              ;
J1266                          	7.13 	0         	1                              ;
J1268                          	7.567	0         	1                              ;
J1269                          	9.302	0         	1                              ;
J1270                          	8.144	0         	1                              ;
J1272                          	10.142	0         	1                              ;
J1273                          	13.106	0         	1                              ;
J1274                          	12.993	0         	1                              ;
J1276                          	10.995	0         	1                              ;
J1277                          	12.59	0         	1                              ;
J1282                          	9.686	0         	1                              ;
J1285                          	9.686	0         	1                              ;
J1286                          	9.686	0         	1                              ;
J1287                          	10.532	0         	1                              ;
J1289                          	10.252	0         	1                              ;
J1290                          	10.252	0         	1                              ;
J1292                          	9.993	0         	1                              ;
J1293                          	10.252	0         	1                              ;
J1294                          	9.125	0         	1                              ;
J1296                          	11.471	0         	1                              ;
J1297                          	10.902	0         	1                              ;
J1300                          	10.888	0         	1                              ;
J1303                          	9.936	0         	1                              ;
J1304                          	10.794	0         	1                              ;
J1309                          	8.777	0         	1                              ;
J1310                          	9.771	0         	1                              ;
J1314                          	8.096	0         	1                              ;
J1315                          	7.5  	0         	1                              ;
J1316                          	8.633	0         	1                              ;
J1318                          	12.328	0         	1                              ;
J1320                          	15.564	0         	1                              ;
J1322                          	12.002	0         	1                              ;
J1523                          	12.002	0         	1                              ;
J1524                          	11.722	0         	1                              ;
J1526                          	13.234	0         	1                              ;
J1529                          	14.524	0         	1                              ;
J1531                          	14.03	0         	1                              ;
J1533                          	16.179	0         	1                              ;
J1534                          	16.179	0         	1                              ;
J1538                          	15.212	0         	1                              ;
J1540                          	15.636	0         	1                              ;
J1541                          	15.636	0         	1                              ;
J1542                          	10.068	0         	1                              ;
J1544                          	13.079	0         	1                              ;
J1545                          	13.079	0         	1                              ;
J1546                          	13.079	0         	1                              ;
J1547                          	15.136	0         	1                              ;
J1548                          	8.132	0         	1                              ;
J1549                          	8.472	0         	1                              ;
J1550                          	9.078	0         	1                              ;
J1553                          	9.078	0         	1                              ;
J1554                          	10.57	0         	1                              ;
J1556                          	11.419	0         	1                              ;
J1557                          	14.035	0         	1                              ;
J1559                          	13.541	0         	1                              ;
J1560                          	11.044	0         	1                              ;
J1563                          	11.299	0         	1                              ;
J1564                          	11.554	0         	1                              ;
J1565                          	11.211	0         	1                              ;